# Modified by LigCare
# Modification time: Tue 27 Dec 2022 21:20:29
# Name: 2rh1_1_photph4.mol2

@<TRIPOS>MOLECULE
2rh1_1_photph4
   41     0     0     0     0
SMALL
NO_CHARGES
@<TRIPOS>ATOM
      1 N         -28.5728   -2.7501   14.8089 N.am      1 ALA1           0.0
      2 CZ        -36.2690    0.4541    8.0158 C.ar      2 PHE2           0.0
      3 CZ        -27.1662    4.1917   13.7845 C.ar      3 PHE3           0.0
      4 NZ        -37.2195   -0.0243    9.6271 N.4       4 LYS4           0.0
      5 OG        -24.0535    5.9118    6.8535 O.3       5 SER5           0.0
      6 NZ        -32.9159    0.4290    9.0818 N.4       6 LYS6           0.0
      7 CZ        -40.5469    0.5816   11.1691 C.ar      7 PHE7           0.0
      8 OG        -28.8005    7.6329    4.4666 O.3       8 SER8           0.0
      9 N         -33.3007    6.5894    9.0914 N.am      9 ALA9           0.0
     10 CZ        -37.3170    5.0051    8.0518 C.ar     10 PHE10          0.0
     11 CZ        -31.1522   -0.9804    9.5028 C.ar     11 PHE11          0.0
     12 N         -23.3152   -1.5293    8.7718 N.am     12 ALA12          0.0
     13 O         -21.1664   -3.5119    9.5535 O.2      13 ALA13          0.0
     14 CZ        -26.9624    6.0288    5.2189 C.ar     14 PHE14          0.0
     15 N         -28.5005    0.2801   17.0284 N.am     15 ALA15          0.0
     16 NZ        -25.8850    0.5064   12.5989 N.4      16 LYS16          0.0
     17 CZ        -28.2025   10.3485    8.5611 C.ar     17 PHE17          0.0
     18 CZ        -30.6234    7.1753    8.9155 C.ar     18 PHE18          0.0
     19 CZ        -32.5936    6.5423   12.3620 C.ar     19 PHE19          0.0
     20 CZ        -33.0005    2.6684   13.4852 C.ar     20 PHE20          0.0
     21 NZ        -32.9426    8.1912    7.0231 N.4      21 LYS21          0.0
     22 O         -33.8286    2.2921    9.3283 O.2      22 ALA22          0.0
     23 CZ        -28.6764   13.5866    6.6724 C.ar     23 PHE23          0.0
     24 CZ        -26.2194   -2.9022    9.0293 C.ar     24 PHE24          0.0
     25 CZ        -26.4914   -0.8541   15.3064 C.ar     25 PHE25          0.0
     26 CZ        -23.6846   -6.8503   10.8002 C.ar     26 PHE26          0.0
     27 CZ        -39.5035    5.6033   11.2198 C.ar     27 PHE27          0.0
     28 CZ        -25.3315   11.3749    6.8083 C.ar     28 PHE28          0.0
     29 CZ        -25.3683   -3.3518    7.7273 C.ar     29 PHE29          0.0
     30 CA        -35.6491    1.8851   13.1098 C.3      30 GLY30          0.0
     31 O         -25.9641    0.0805    9.5755 O.2      31 ALA31          0.0
     32 CA        -39.8638    4.4372   12.1728 C.3      32 GLY32          0.0
     33 CZ        -27.2313    7.3381    5.9390 C.ar     33 PHE33          0.0
     34 CZ        -31.2308    3.9619   10.1097 C.ar     34 PHE34          0.0
     35 CZ        -39.6495    7.7126    9.8858 C.ar     35 PHE35          0.0
     36 CZ        -27.6973    2.5186   13.8073 C.ar     36 PHE36          0.0
     37 CZ        -25.3960   -2.8528    7.7408 C.ar     37 PHE37          0.0
     38 N         -27.7954    2.8629    8.3901 N.am     38 ALA38          0.0
     39 CA        -30.0337    8.1410    4.4016 C.3      39 GLY39          0.0
     40 N         -37.0267    2.4948    6.8363 N.am     40 ALA40          0.0
     41 CZ        -29.7596    5.2430    8.2669 C.ar     41 PHE41          0.0
@<TRIPOS>BOND