# Modified by LigCare
# Modification time: Wed 14 Dec 2022 14:28:08
# Name: 2rh1_1_ligph4.mol2

@<TRIPOS>MOLECULE
2rh1_1_ligph4
   22     0     0     0     0
SMALL
NO_CHARGES
@<TRIPOS>ATOM
      1 CZ        -26.9247    7.6455    7.3282 C.ar      1 PHE1           0.0
      2 CZ        -27.7585   11.3710    5.9505 C.ar      2 PHE2           0.0
      3 CZ        -26.7008    9.5628    6.3958 C.ar      3 PHE3           0.0
      4 CA        -26.9247    7.6455    7.3282 C.3       4 GLY4           0.0
      5 CA        -27.7585   11.3710    5.9505 C.3       5 GLY5           0.0
      6 CA        -26.7008    9.5628    6.3958 C.3       6 GLY6           0.0
      7 OG        -33.4770   10.9570    8.1700 O.3       7 SER7           0.0
      8 O         -30.0490   10.3670    7.1820 O.2       8 ALA8           0.0
      9 NZ        -33.7020    8.2500    7.6000 N.4       9 LYS9           0.0
     10 N         -25.5930    9.6570    5.9740 N.am     10 ALA10          0.0
     11 CA        -33.5330    6.3850    6.0550 C.3      11 GLY11          0.0
     12 CA        -35.1840    6.3500    7.9880 C.3      12 GLY12          0.0
     13 N         -33.4770   10.9570    8.1700 N.am     13 ALA13          0.0
     14 O         -33.4770   10.9570    8.1700 O.2      14 ALA14          0.0
     15 NZ        -33.4770   10.9570    8.1700 N.4      15 LYS15          0.0
     16 OD1       -33.4770   10.9570    8.1700 O.co2    16 ASP16          0.0
     17 OG        -30.0490   10.3670    7.1820 O.3      17 SER17          0.0
     18 OD1       -30.0490   10.3670    7.1820 O.co2    18 ASP18          0.0
     19 OG        -33.7020    8.2500    7.6000 O.3      19 SER19          0.0
     20 N         -33.7020    8.2500    7.6000 N.am     20 ALA20          0.0
     21 OG        -25.5930    9.6570    5.9740 O.3      21 SER21          0.0
     22 NZ        -25.5930    9.6570    5.9740 N.4      22 LYS22          0.0
@<TRIPOS>BOND