# Modified by LigCare
# Modification time: Thu 15 Dec 2022 21:32:19
# Name: pred_pharm/rf/random//1a0q_1_cavityALL_pharm.mol2

@<TRIPOS>MOLECULE
pred_pharm/rf/random//1a0q_1_cavityALL_pharm
   29     0     0     0     0
SMALL
NO_CHARGES
@<TRIPOS>ATOM
      1 OG         12.1200   20.1000   57.3400 O.3       1 SER1           0.0
      2 OG         14.5000   22.4600   57.3600 O.3       2 SER2           0.0
      3 N          11.3700   19.8800   59.3100 N.am      3 ALA3           0.0
      4 OD1        14.6900   21.3300   55.0300 O.co2     4 ASP4           0.0
      5 OD1        12.6600   21.4500   57.7000 O.co2     5 ASP5           0.0
      6 OD1        13.9500   21.1100   57.0100 O.co2     6 ASP6           0.0
      7 OD1        15.7800   20.2100   57.5900 O.co2     7 ASP7           0.0
      8 OD1        13.7600   22.2400   59.3400 O.co2     8 ASP8           0.0
      9 OD1        15.0400   21.9000   58.6400 O.co2     9 ASP9           0.0
     10 CZ         15.7900   24.0300   55.7500 C.ar     10 PHE10          0.0
     11 CZ         17.0800   23.6900   55.0500 C.ar     11 PHE11          0.0
     12 CZ         11.5600   16.8400   57.9100 C.ar     12 PHE12          0.0
     13 CZ         12.1100   18.1900   58.2600 C.ar     13 PHE13          0.0
     14 CZ          8.2400   17.3000   61.2700 C.ar     14 PHE14          0.0
     15 CZ         10.8200   16.6200   59.8800 C.ar     15 PHE15          0.0
     16 CZ         12.6500   17.6300   59.5500 C.ar     16 PHE16          0.0
     17 CA         17.2700   22.5600   52.7200 C.3      17 GLY17          0.0
     18 CA         15.9800   20.9900   54.3400 C.3      18 GLY18          0.0
     19 CA         15.2400   22.6800   55.3900 C.3      19 GLY19          0.0
     20 CA         16.5300   22.3400   54.7000 C.3      20 GLY20          0.0
     21 CA         17.8200   22.0000   54.0000 C.3      21 GLY21          0.0
     22 CA         19.1000   21.6600   53.3100 C.3      22 GLY22          0.0
     23 CA         18.3700   23.3500   54.3600 C.3      23 GLY23          0.0
     24 CA         11.0200   17.4000   56.6300 C.3      24 GLY24          0.0
     25 CA         17.0700   21.7800   55.9800 C.3      25 GLY25          0.0
     26 CA         11.0100   15.4900   57.5500 C.3      26 GLY26          0.0
     27 CA          8.9900   17.5200   59.2900 C.3      27 GLY27          0.0
     28 CA         10.2700   17.1800   58.6000 C.3      28 GLY28          0.0
     29 CA         13.4000   17.8500   57.5700 C.3      29 GLY29          0.0
@<TRIPOS>BOND