@<TRIPOS>MOLECULE
2rh1_1_ligand
   45    47     1     0     0
SMALL
USER_CHARGES


@<TRIPOS>ATOM
      1 O17       -33.4770    10.9570     8.1700 O.3        1 CAU408      0.0000
      2 O14       -30.0490    10.3670     7.1820 O.3        1 CAU408      0.0000
      3 N19       -33.7020     8.2500     7.6000 N.4        1 CAU408      1.0000
      4 N7        -25.5930     9.6570     5.9740 N.pl3      1 CAU408      0.0000
      5 C21       -33.5330     6.3850     6.0550 C.3        1 CAU408      0.0000
      6 C22       -35.1840     6.3500     7.9880 C.3        1 CAU408      0.0000
      7 C15       -31.2420    11.1050     7.3640 C.3        1 CAU408      0.0000
      8 C18       -32.4780     8.9510     7.2250 C.3        1 CAU408      0.0000
      9 C1        -26.3950     6.4320     7.6890 C.ar       1 CAU408      0.0000
     10 C6        -27.7170     6.7310     8.0060 C.ar       1 CAU408      0.0000
     11 C11       -27.7680    12.6280     5.3930 C.ar       1 CAU408      0.0000
     12 C12       -28.9110    12.1330     6.0050 C.ar       1 CAU408      0.0000
     13 C2        -25.5890     7.3380     7.0090 C.ar       1 CAU408      0.0000
     14 C10       -26.6080    11.8750     5.3320 C.ar       1 CAU408      0.0000
     15 C5        -28.2690     7.9480     7.6520 C.ar       1 CAU408      0.0000
     16 C16       -32.2670    10.2300     8.0410 C.3        1 CAU408      0.0000
     17 C20       -33.8060     6.8050     7.4980 C.3        1 CAU408      0.0000
     18 C13       -28.9310    10.8570     6.5810 C.ar       1 CAU408      0.0000
     19 C3        -26.0960     8.5610     6.6370 C.ar       1 CAU408      0.0000
     20 C8        -26.5650    10.6250     5.8750 C.ar       1 CAU408      0.0000
     21 C4        -27.4820     8.8630     6.9760 C.ar       1 CAU408      0.0000
     22 C9        -27.7680    10.1080     6.5170 C.ar       1 CAU408      0.0000
     23 H1        -33.8047    11.2224     7.2633 H          1 CAU408      0.0000
     24 H2        -34.4305     8.6271     7.0281 H          1 CAU408      0.0000
     25 H3        -24.6619     9.7374     5.6182 H          1 CAU408      0.0000
     26 H4        -33.6032     5.3904     5.9784 H          1 CAU408      0.0000
     27 H5        -34.2040     6.8141     5.4503 H          1 CAU408      0.0000
     28 H6        -32.6131     6.6755     5.7916 H          1 CAU408      0.0000
     29 H7        -35.2515     5.3549     7.9161 H          1 CAU408      0.0000
     30 H8        -35.3059     6.6244     8.9419 H          1 CAU408      0.0000
     31 H9        -35.8943     6.7737     7.4259 H          1 CAU408      0.0000
     32 H10       -31.5905    11.4022     6.4751 H          1 CAU408      0.0000
     33 H11       -31.0566    11.9055     7.9339 H          1 CAU408      0.0000
     34 H12       -32.5299     9.1927     6.2560 H          1 CAU408      0.0000
     35 H13       -31.6995     8.3416     7.3753 H          1 CAU408      0.0000
     36 H14       -26.0166     5.5458     7.9563 H          1 CAU408      0.0000
     37 H15       -28.2730     6.0587     8.4947 H          1 CAU408      0.0000
     38 H16       -27.7826    13.5430     4.9898 H          1 CAU408      0.0000
     39 H17       -29.7355    12.6981     6.0351 H          1 CAU408      0.0000
     40 H18       -24.6424     7.1008     6.7908 H          1 CAU408      0.0000
     41 H19       -25.7954    12.2506     4.8863 H          1 CAU408      0.0000
     42 H20       -29.2187     8.1627     7.8802 H          1 CAU408      0.0000
     43 H21       -31.9355     9.9845     8.9520 H          1 CAU408      0.0000
     44 H22       -33.1087     6.3943     8.0855 H          1 CAU408      0.0000
     45 H23       -33.8773     8.4793     8.5574 H          1 CAU408      0.0000
@<TRIPOS>BOND
     1    1   16       1
     2    1   23       1
     3    2    7       1
     4    2   18       1
     5    3    8       1
     6    3   17       1
     7    3   24       1
     8    3   45       1
     9    4   19       1
    10    4   20       1
    11    4   25       1
    12    5   17       1
    13    5   26       1
    14    5   27       1
    15    5   28       1
    16    6   17       1
    17    6   29       1
    18    6   30       1
    19    6   31       1
    20    7   16       1
    21    7   32       1
    22    7   33       1
    23    8   16       1
    24    8   34       1
    25    8   35       1
    26    9   10      ar
    27    9   13      ar
    28    9   36       1
    29   10   15      ar
    30   10   37       1
    31   11   12      ar
    32   11   14      ar
    33   11   38       1
    34   12   18      ar
    35   12   39       1
    36   13   19      ar
    37   13   40       1
    38   14   20      ar
    39   14   41       1
    40   15   21      ar
    41   15   42       1
    42   16   43       1
    43   17   44       1
    44   18   22      ar
    45   19   21      ar
    46   20   22      ar
    47   21   22       1
@<TRIPOS>SUBSTRUCTURE
     1 CAU408      1 RESIDUE           4 A     CAU     0 ROOT CAU A 408
