@<TRIPOS>MOLECULE
2rh1_1
   58     0    12     0     0
SMALL
NO_CHARGES


@<TRIPOS>ATOM
      1 N         -33.4770   10.9570    8.1700 N.am      1 SEL1       -4.0000 
      2 O         -33.4770   10.9570    8.1700 O.2       2 ALL2       -4.0000 
      3 O         -33.7020    8.2500    7.6000 O.2       2 ALL2       -4.0000 
      4 O         -25.5930    9.6570    5.9740 O.2       2 ALL2       -0.5553 
      5 OD1       -33.7020    8.2500    7.6000 O.co2     3 ASL4       -4.0000 
      6 CA        -33.5330    6.3850    6.0550 C.3       4 GLL5       -4.1370 
      7 CA        -35.1840    6.3500    7.9880 C.3       4 GLL5       -2.5059 
      8 CA        -31.2420   11.1050    7.3640 C.3       4 GLL5       -5.1919 
      9 CA        -26.3950    6.4320    7.6890 C.3       4 GLL5       -3.4264 
     10 CA        -32.2670   10.2300    8.0410 C.3       4 GLL5       -4.1981 
     11 CA        -27.7680   12.6280    5.3930 C.3       4 GLL5       -4.6107 
     12 CA        -28.9110   12.1330    6.0050 C.3       4 GLL5       -4.3684 
     13 CA        -26.6080   11.8750    5.3320 C.3       4 GLL5       -3.7306 
     14 CA        -28.9310   10.8570    6.5810 C.3       4 GLL5       -3.6892 
     15 N         -34.4710   10.4710   10.7090 N.am      5 SEP1        0.0000 
     16 O         -34.4530   11.2630    5.7710 O.2       6 ALP2        0.0000 
     17 O         -37.0150    9.0610    7.9790 O.2       6 ALP2        0.0000 
     18 O         -35.6440    9.4190    5.7270 O.2       6 ALP2        0.0000 
     19 O         -33.9330    8.3020   10.4390 O.2       6 ALP2        0.0000 
     20 O         -23.9440   10.0100    3.1180 O.2       6 ALP2        0.0000 
     21 OD1       -35.6440    9.4190    5.7270 O.co2     7 ASP4        0.0000 
     22 OD1       -34.4530   11.2630    5.7710 O.co2     7 ASP4        0.0000 
     23 CA        -37.4040    4.8490    4.5320 C.3       8 GLP5        0.0000 
     24 CA        -32.4270    5.6450    1.8300 C.3       8 GLP5        0.0000 
     25 CA        -31.3510    2.9470    6.0430 C.3       8 GLP5        0.0000 
     26 CA        -37.9190    5.6020    5.5750 C.3       8 GLP5        0.0000 
     27 CA        -37.4200   10.1480    8.6880 C.3       8 GLP5        0.0000 
     28 CA        -32.5030   14.9160    6.6410 C.3       8 GLP5        0.0000 
     29 CA        -29.4890    9.9260   10.7980 C.3       8 GLP5        0.0000 
     30 CA        -26.4150    2.7620    5.4090 C.3       8 GLP5        0.0000 
     31 CA        -30.3270    8.8290   10.9230 C.3       8 GLP5        0.0000 
     32 CA        -32.2020   13.3910   10.5810 C.3       8 GLP5        0.0000 
     33 CA        -28.6570   11.3380    1.8910 C.3       8 GLP5        0.0000 
     34 CA        -30.1990   15.7370    7.0980 C.3       8 GLP5        0.0000 
     35 CA        -24.4200   14.4880    3.9220 C.3       8 GLP5        0.0000 
     36 CA        -30.0540    9.6430    3.1470 C.3       8 GLP5        0.0000 
     37 N         -33.9740   10.7140    9.4395 N.am      9 SEC1        0.0000 
     38 O         -33.9650   11.1100    6.9705 O.2      10 ALC2        0.0000 
     39 O         -35.3585    8.6555    7.7895 O.2      10 ALC2        0.0000 
     40 O         -34.6730    8.8345    6.6635 O.2      10 ALC2        0.0000 
     41 O         -33.8175    8.2760    9.0195 O.2      10 ALC2        0.0000 
     42 O         -24.7685    9.8335    4.5460 O.2      10 ALC2        0.0000 
     43 OD1       -34.6730    8.8345    6.6635 O.co2    11 ASC4        0.0000 
     44 OD1       -34.0775    9.7565    6.6855 O.co2    11 ASC4        0.0000 
     45 CA        -35.4685    5.6170    5.2935 C.3      12 GLC5        0.0000 
     46 CA        -32.9800    6.0150    3.9425 C.3      12 GLC5        0.0000 
     47 CA        -32.4420    4.6660    6.0490 C.3      12 GLC5        0.0000 
     48 CA        -36.5515    5.9760    6.7815 C.3      12 GLC5        0.0000 
     49 CA        -36.3020    8.2490    8.3380 C.3      12 GLC5        0.0000 
     50 CA        -31.8725   13.0105    7.0025 C.3      12 GLC5        0.0000 
     51 CA        -30.3655   10.5155    9.0810 C.3      12 GLC5        0.0000 
     52 CA        -26.4050    4.5970    6.5490 C.3      12 GLC5        0.0000 
     53 CA        -31.2970    9.5295    9.4820 C.3      12 GLC5        0.0000 
     54 CA        -31.9782   12.0293    9.1418 C.3      12 GLC5        0.0000 
     55 CA        -27.9225   11.7948    3.6267 C.3      12 GLC5        0.0000 
     56 CA        -29.2692   14.0587    6.3985 C.3      12 GLC5        0.0000 
     57 CA        -25.8040   13.3697    4.6422 C.3      12 GLC5        0.0000 
     58 CA        -29.1992   10.2222    4.7760 C.3      12 GLC5        0.0000 
@<TRIPOS>BOND
@<TRIPOS>SUBSTRUCTURE
     1 SEL1        1 GROUP        1 Z    SEL  0     ROOT SEL Z 0
     2 ALL2        2 GROUP        1 Z    ALL  0     **** ALL Z 1
     3 ASL4        5 GROUP        1 Z    ASL  0     **** ASL Z 3
     4 GLL5        6 GROUP        1 Z    GLL  0     **** GLL Z 4
     5 SEP1       15 GROUP        1 Z    SEP  0     **** SEP Z 7
     6 ALP2       16 GROUP        1 Z    ALP  0     **** ALP Z 8
     7 ASP4       21 GROUP        1 Z    ASP  0     **** ASP Z 10
     8 GLP5       23 GROUP        1 Z    GLP  0     **** GLP Z 11
     9 SEC1       37 GROUP        1 Z    SEC  0     **** SEC Z 14
    10 ALC2       38 GROUP        1 Z    ALC  0     **** ALC Z 15
    11 ASC4       43 GROUP        1 Z    ASC  0     **** ASC Z 17
    12 GLC5       45 GROUP        1 Z    GLC  0     **** GLC Z 18
@<TRIPOS>SET

