# Modified by LigCare
# Modification time: Thu 15 Dec 2022 21:32:51
# Name: pred_pharm/rf/kinase//1a5u_1_cavityALL_pharm.mol2

@<TRIPOS>MOLECULE
pred_pharm/rf/kinase//1a5u_1_cavityALL_pharm
   94     0     0     0     0
SMALL
NO_CHARGES
@<TRIPOS>ATOM
      1 OG         10.4500   54.4100   14.1000 O.3       1 SER1           0.0
      2 OG         12.2300   61.3500   11.0300 O.3       2 SER2           0.0
      3 OG         10.8700   56.4400   14.5400 O.3       3 SER3           0.0
      4 OG          8.0200   55.5800   16.0800 O.3       4 SER4           0.0
      5 OG         12.6200   64.6700   10.6900 O.3       5 SER5           0.0
      6 OG         14.1000   61.9000   11.8800 O.3       6 SER6           0.0
      7 OG         12.6800   60.8300   13.0400 O.3       7 SER7           0.0
      8 OG         12.7000   59.5500   13.8200 O.3       8 SER8           0.0
      9 OG         15.8100   66.1900   15.9900 O.3       9 SER9           0.0
     10 N          10.4700   53.1300   14.8900 N.am     10 ALA10          0.0
     11 N          22.3000   58.6000    9.1600 N.am     11 ALA11          0.0
     12 N          18.0700   54.1100   13.4300 N.am     12 ALA12          0.0
     13 N          15.2000   54.5300   14.1900 N.am     13 ALA13          0.0
     14 N          13.7600   54.7400   14.5700 N.am     14 ALA14          0.0
     15 N          12.3200   54.9500   14.9500 N.am     15 ALA15          0.0
     16 N          12.3400   53.6700   15.7300 N.am     16 ALA16          0.0
     17 N          18.3800   56.0600   19.4800 N.am     17 ALA17          0.0
     18 O           9.5900   52.9000   11.6600 O.2      18 ALA18          0.0
     19 O          10.0200   53.6600   12.8800 O.2      19 ALA19          0.0
     20 O          11.2200   62.3200   12.6400 O.2      20 ALA20          0.0
     21 O          11.2400   61.0400   13.4200 O.2      21 ALA21          0.0
     22 O           9.8300   59.9700   14.5800 O.2      22 ALA22          0.0
     23 O          11.6800   61.7900   14.6400 O.2      23 ALA23          0.0
     24 O          10.2400   62.0000   15.0200 O.2      24 ALA24          0.0
     25 O          12.1300   61.2600   16.6500 O.2      25 ALA25          0.0
     26 OD1        12.2100   62.6300   10.2500 O.co2    26 ASP26          0.0
     27 OD1        11.1800   64.8700   11.0700 O.co2    27 ASP27          0.0
     28 OD1        12.6400   63.3900   11.4700 O.co2    28 ASP28          0.0
     29 OD1        11.2000   63.6000   11.8500 O.co2    29 ASP29          0.0
     30 OD1        14.1100   60.6200   12.6600 O.co2    30 ASP30          0.0
     31 OD1        14.1300   59.3400   13.4400 O.co2    31 ASP31          0.0
     32 OD1        14.1500   58.0600   14.2200 O.co2    32 ASP32          0.0
     33 OD1        17.0400   56.3600   14.2500 O.co2    33 ASP33          0.0
     34 OD1        13.0900   62.8600   13.4800 O.co2    34 ASP34          0.0
     35 OD1        11.6600   63.0700   13.8600 O.co2    35 ASP35          0.0
     36 OD1         8.8000   62.2100   15.4000 O.co2    36 ASP36          0.0
     37 OD1        16.0000   59.8800   14.2900 O.co2    37 ASP37          0.0
     38 OD1        14.5700   60.0900   14.6600 O.co2    38 ASP38          0.0
     39 OD1        14.9400   64.6800   13.5400 O.co2    39 ASP39          0.0
     40 OD1        14.9600   63.4000   14.3200 O.co2    40 ASP40          0.0
     41 OD1        13.5200   63.6100   14.7000 O.co2    41 ASP41          0.0
     42 OD1        10.6700   62.7500   16.2400 O.co2    42 ASP42          0.0
     43 OD1        15.3700   65.4400   14.7600 O.co2    43 ASP43          0.0
     44 OD1        13.9400   65.6500   15.1400 O.co2    44 ASP44          0.0
     45 OD1        21.2000   59.4800   16.3800 O.co2    45 ASP45          0.0
     46 NZ         18.5200   53.5900   15.4300 N.4      46 LYS46          0.0
     47 NZ         15.9600   62.4400   12.7200 N.4      47 LYS47          0.0
     48 NZ         19.2500   64.0500   12.4000 N.4      48 LYS48          0.0
     49 NZ         17.8100   64.2600   12.7800 N.4      49 LYS49          0.0
     50 NZ         19.2700   62.7700   13.1900 N.4      50 LYS50          0.0
     51 NZ         17.8300   62.9800   13.5600 N.4      51 LYS51          0.0
     52 NZ         16.4000   63.1900   13.9400 N.4      52 LYS52          0.0
     53 NZ         18.2700   63.7400   14.7900 N.4      53 LYS53          0.0
     54 NZ         16.8300   63.9500   15.1700 N.4      54 LYS54          0.0
     55 NZ         18.2900   62.4600   15.5700 N.4      55 LYS55          0.0
     56 NZ         16.8500   62.6700   15.9500 N.4      56 LYS56          0.0
     57 NZ         24.1100   56.5000   17.1800 N.4      57 LYS57          0.0
     58 NZ         18.6800   65.7700   15.2300 N.4      58 LYS58          0.0
     59 NZ         17.2400   65.9800   15.6100 N.4      59 LYS59          0.0
     60 NZ         17.2600   64.7000   16.3900 N.4      60 LYS60          0.0
     61 NZ         17.2800   63.4200   17.1700 N.4      61 LYS61          0.0
     62 NZ         22.0000   64.8300   16.4700 N.4      62 LYS62          0.0
     63 NZ         22.0200   63.5500   17.2600 N.4      63 LYS63          0.0
     64 NZ         22.0400   62.2700   18.0400 N.4      64 LYS64          0.0
     65 CZ          8.6200   51.3100   14.8200 C.ar     65 PHE65          0.0
     66 CZ         11.2600   59.7600   14.2000 C.ar     66 PHE66          0.0
     67 CZ         12.7200   58.2700   14.6000 C.ar     67 PHE67          0.0
     68 CZ         11.2800   58.4800   14.9800 C.ar     68 PHE68          0.0
     69 CA         12.0100   53.0100    8.9000 C.3      69 GLY69          0.0
     70 CA         21.4100   58.3700    5.9400 C.3      70 GLY70          0.0
     71 CA         21.8500   59.1300    7.1600 C.3      71 GLY71          0.0
     72 CA         20.4100   59.3400    7.5400 C.3      72 GLY72          0.0
     73 CA          9.0200   54.6200   14.4800 C.3      73 GLY73          0.0
     74 CA         16.6100   55.6000   13.0300 C.3      74 GLY74          0.0
     75 CA         10.8900   55.1600   15.3300 C.3      75 GLY75          0.0
     76 CA          9.4500   55.3700   15.7000 C.3      76 GLY76          0.0
     77 CA          9.4700   54.0900   16.4900 C.3      77 GLY77          0.0
     78 CA         21.2900   59.5700   10.7600 C.3      78 GLY78          0.0
     79 CA         14.1900   55.5000   15.7900 C.3      79 GLY79          0.0
     80 CA         12.7600   55.7100   16.1700 C.3      80 GLY80          0.0
     81 CA         11.3200   55.9200   16.5500 C.3      81 GLY81          0.0
     82 CA         15.6500   54.0100   16.1900 C.3      82 GLY82          0.0
     83 CA         12.7800   54.4300   16.9500 C.3      83 GLY83          0.0
     84 CA         16.0200   58.6000   15.0700 C.3      84 GLY84          0.0
     85 CA         13.1500   59.0200   15.8300 C.3      85 GLY85          0.0
     86 CA         11.7100   59.2300   16.2100 C.3      86 GLY86          0.0
     87 CA         10.2800   59.4400   16.5800 C.3      87 GLY87          0.0
     88 CA         21.7900   56.4800   14.3300 C.3      88 GLY88          0.0
     89 CA         11.7300   57.9500   16.9900 C.3      89 GLY89          0.0
     90 CA         11.7500   56.6700   17.7700 C.3      90 GLY90          0.0
     91 CA         22.1800   59.7900   13.9900 C.3      91 GLY91          0.0
     92 CA         13.5600   61.0500   16.2700 C.3      92 GLY92          0.0
     93 CA         22.6100   60.5500   15.2100 C.3      93 GLY93          0.0
     94 CA         16.8700   61.3900   16.7300 C.3      94 GLY94          0.0
@<TRIPOS>BOND