# Modified by LigCare
# Modification time: Thu 15 Dec 2022 21:43:17
# Name: pred_pharm/rf/time//3ix2_2_cavityALL_pharm.mol2

@<TRIPOS>MOLECULE
pred_pharm/rf/time//3ix2_2_cavityALL_pharm
   21     0     0     0     0
SMALL
NO_CHARGES
@<TRIPOS>ATOM
      1 OG         27.4000   36.8900   13.2700 O.3       1 SER1           0.0
      2 OG         27.5700   38.8300   16.0000 O.3       2 SER2           0.0
      3 N          27.1200   36.2600   11.2700 N.am      3 ALA3           0.0
      4 N          23.7300   37.6800   11.2900 N.am      4 ALA4           0.0
      5 N          27.2900   38.2000   14.0000 N.am      5 ALA5           0.0
      6 N          26.9000   38.8800   12.7200 N.am      6 ALA6           0.0
      7 N          25.4500   38.5900   13.0100 N.am      7 ALA7           0.0
      8 N          27.1800   39.5100   14.7200 N.am      8 ALA8           0.0
      9 O          25.1700   37.9600   11.0000 O.2       9 ALA9           0.0
     10 NZ         23.8400   36.3700   10.5700 N.4      10 LYS10          0.0
     11 NZ         22.2800   37.4000   11.5800 N.4      11 LYS11          0.0
     12 CZ         25.5600   37.2900   12.2800 C.ar     12 PHE12          0.0
     13 CZ         24.1200   37.0000   12.5700 C.ar     13 PHE13          0.0
     14 CZ         29.9000   36.4500   17.5500 C.ar     14 PHE14          0.0
     15 CA         31.3500   36.7300   17.2600 C.3      15 GLY15          0.0
     16 CA         30.5700   38.0900   14.6900 C.3      16 GLY16          0.0
     17 CA         29.1200   37.8000   14.9900 C.3      17 GLY17          0.0
     18 CA         28.7300   38.4800   13.7000 C.3      18 GLY18          0.0
     19 CA         29.0100   39.1100   15.7100 C.3      19 GLY19          0.0
     20 CA         25.7300   39.2300   15.0100 C.3      20 GLY20          0.0
     21 CA         26.0200   39.8600   17.0200 C.3      21 GLY21          0.0
@<TRIPOS>BOND