# Modified by LigCare
# Modification time: Thu 15 Dec 2022 21:38:27
# Name: pred_pharm/rf/protease//1a4w_1_cavityALL_pharm.mol2

@<TRIPOS>MOLECULE
pred_pharm/rf/protease//1a4w_1_cavityALL_pharm
   43     0     0     0     0
SMALL
NO_CHARGES
@<TRIPOS>ATOM
      1 OG         16.5300  -10.3300   16.2800 O.3       1 SER1           0.0
      2 OG         15.3400  -11.2300   16.1600 O.3       2 SER2           0.0
      3 OG         15.9300  -12.2400   17.9300 O.3       3 SER3           0.0
      4 OG         13.8900  -12.6300   22.2000 O.3       4 SER4           0.0
      5 OG         14.4500  -12.9800   19.2700 O.3       5 SER5           0.0
      6 OG         11.8300  -12.3500   21.7600 O.3       6 SER6           0.0
      7 OG         12.9800  -13.7100   20.6100 O.3       7 SER7           0.0
      8 N          24.1800  -14.0100   24.3600 N.am      8 ALA8           0.0
      9 N          24.4600  -14.1900   22.9000 N.am      9 ALA9           0.0
     10 N          25.0500  -15.1900   24.6700 N.am     10 ALA10          0.0
     11 N          21.5500  -13.3900   26.8500 N.am     11 ALA11          0.0
     12 N          22.4200  -14.5700   27.1600 N.am     12 ALA12          0.0
     13 N          12.4500  -11.1000   24.8100 N.am     13 ALA13          0.0
     14 N          14.7600  -13.8100   22.5000 N.am     14 ALA14          0.0
     15 N          10.6700  -11.0000   22.9200 N.am     15 ALA15          0.0
     16 N          11.5400  -12.1800   23.2200 N.am     16 ALA16          0.0
     17 N          12.4100  -13.3600   23.5300 N.am     17 ALA17          0.0
     18 N          12.7000  -13.5400   22.0700 N.am     18 ALA18          0.0
     19 OD1        17.4000  -11.5100   16.5900 O.co2    19 ASP19          0.0
     20 NZ         17.6300  -13.2800    9.1600 N.4      20 LYS20          0.0
     21 NZ         13.8500  -14.8900   20.9200 N.4      21 LYS21          0.0
     22 NZ         15.0000  -16.2500   19.7600 N.4      22 LYS22          0.0
     23 NZ         12.6600  -15.8000   20.7900 N.4      23 LYS23          0.0
     24 CZ         19.7600  -12.6200   20.2600 C.ar     24 PHE24          0.0
     25 CZ         20.0400  -12.8000   18.8000 C.ar     25 PHE25          0.0
     26 CZ         20.6300  -13.8100   20.5700 C.ar     26 PHE26          0.0
     27 CZ         20.9100  -13.9800   19.1100 C.ar     27 PHE27          0.0
     28 CZ         20.3600  -14.3000   26.7300 C.ar     28 PHE28          0.0
     29 CZ         19.7200  -14.8800   18.9800 C.ar     29 PHE29          0.0
     30 CZ         19.1700  -15.2000   26.6000 C.ar     30 PHE30          0.0
     31 CA         21.2300  -11.8900   18.9200 C.3      31 GLY31          0.0
     32 CA         21.5200  -12.0600   17.4600 C.3      32 GLY32          0.0
     33 CA         22.9400  -12.9300   10.1500 C.3      33 GLY33          0.0
     34 CA         21.2700  -13.2200   28.3100 C.3      34 GLY34          0.0
     35 CA         21.8300  -13.5600   25.3900 C.3      35 GLY35          0.0
     36 CA         22.1200  -13.7400   23.9300 C.3      36 GLY36          0.0
     37 CA         20.6000  -12.4800   11.1800 C.3      37 GLY37          0.0
     38 CA         19.4800  -12.4500   21.7200 C.3      38 GLY38          0.0
     39 CA         21.7500  -13.8400   10.0200 C.3      39 GLY39          0.0
     40 CA         20.3400  -13.6300   22.0300 C.3      40 GLY40          0.0
     41 CA         21.2300  -15.4800   27.0400 C.3      41 GLY41          0.0
     42 CA         18.5400  -12.2000   10.7400 C.3      42 GLY42          0.0
     43 CA         13.5300  -13.3900   12.9900 C.3      43 GLY43          0.0
@<TRIPOS>BOND